grid_simulations/tests/Result_no_control/output_current_offpeak.csv
# Result_no_control/output_current_offpeak.csv run at 2000-01-01 00:01:00 EST on 907 links
link_name,currA_mag,currA_angle,currB_mag,currB_angle,currC_mag,currC_angle
Source_Impedance,0.000000,0.141186,0.000000,3.315200,0.000000,3.161024
TR1,0.000000,0.141095,0.000000,3.315447,0.000000,3.159917
LINE1,0.000000,0.623801,0.000000,3.140370,0.000000,1.680095
LINE2,0.000000,0.754680,0.000000,3.135705,0.000000,1.732084
LINE3,0.000000,0.718216,0.000000,3.133006,0.000000,1.754155
LINE4,0.000000,0.768195,0.000000,3.120175,0.000000,1.646992
LINE5,0.000000,0.831034,0.000000,3.149747,0.000000,1.551399
LINE6,0.000000,0.850372,0.000000,3.143950,0.000000,1.572070
LINE7,0.000000,0.851469,0.000000,3.142501,0.000000,1.566774
LINE8,0.000000,0.851094,0.000000,3.144938,0.000000,1.532552
LINE9,0.000000,0.874050,0.000000,3.142731,0.000000,1.541576
LINE10,0.000000,0.872839,0.000000,3.148971,0.000000,1.539295
LINE11,0.000000,0.841529,0.000000,3.133461,0.000000,1.578502
LINE12,0.000000,0.885911,0.000000,3.138951,0.000000,1.582432
LINE13,0.000000,0.894317,0.000000,3.144667,0.000000,1.646498
LINE14,0.000000,0.900705,0.000000,3.144190,0.000000,1.628988
LINE15,0.000000,0.896869,0.000000,3.415160,0.000000,-0.024932
LINE16,0.000000,0.899519,0.000000,3.120993,0.000000,1.632598
LINE17,0.000000,0.917068,0.000000,3.408118,0.000000,-1.546428
LINE18,0.000000,0.923148,0.000000,3.117366,0.000000,1.664361
LINE19,0.000000,1.698514,0.000000,3.327754,0.000000,-1.554111
LINE20,0.000000,0.887239,0.000000,3.127134,0.000000,1.641201
LINE21,0.000000,1.348469,0.000000,3.361639,0.000000,-1.553840
LINE22,0.000000,0.925874,0.000000,3.134932,0.000000,1.703624
LINE23,0.000000,0.760466,0.000000,3.394960,0.000000,-1.511036
LINE24,0.000000,0.864005,0.000000,3.131534,0.000000,1.699450
LINE25,0.000000,0.515488,0.000000,3.635807,0.000000,-0.024932
LINE26,0.000000,2.687779,0.000000,3.316499,0.000000,1.399581
LINE27,0.000000,0.757734,0.000000,3.115028,0.000000,1.729477
LINE28,0.000000,0.693898,0.000000,3.459685,0.000000,1.514597
LINE29,0.000000,4.664017,0.000000,2.585714,0.000000,-1.546829
LINE30,0.000000,2.692842,0.000000,3.315533,0.000000,1.410481
LINE31,0.000000,0.761520,0.000000,3.114200,0.000000,1.727880
LINE32,0.000000,0.712883,0.000000,3.431875,0.000000,1.511102
LINE33,0.000000,-0.577881,0.000000,2.602145,0.000000,3.164484
LINE34,0.000000,3.061183,0.000000,3.313380,0.000000,0.017653
LINE35,0.000000,3.805257,0.000000,0.560002,0.000000,4.615390
LINE36,0.000000,0.751481,0.000000,3.119354,0.000000,1.688459
LINE37,0.000000,0.819222,0.000000,3.430893,0.000000,1.483842
LINE38,0.000000,-0.713784,0.000000,3.426798,0.000000,1.503476
LINE39,0.000000,4.007498,0.000000,0.224086,0.000000,4.625975
LINE40,0.000000,2.287765,0.000000,-0.090138,0.000000,-0.261209
LINE41,0.000000,2.703577,0.000000,3.026697,0.000000,3.323798
LINE42,0.000000,0.512545,0.000000,-1.088974,0.000000,1.185428
LINE43,0.000000,0.957862,0.000000,3.281809,0.000000,-0.024932
LINE44,0.000000,-1.062938,0.000000,3.540422,0.000000,1.544909
LINE45,0.000000,3.638179,0.000000,0.526311,0.000000,4.611701
LINE46,0.000000,-0.149575,0.000000,-0.149575,0.000000,3.066247
LINE47,0.000000,2.681189,0.000000,3.026341,0.000000,3.322807
LINE48,0.000000,0.653124,0.000000,3.930200,0.000000,1.003113
LINE49,0.000000,0.837238,0.000000,2.473160,0.000000,-1.550039
LINE50,0.000000,4.662047,0.000000,3.087346,0.000000,1.534818
LINE51,0.000000,3.246825,0.000000,0.630036,0.000000,4.653373
LINE52,0.000000,2.567040,0.000000,2.940543,0.000000,2.714110
LINE53,0.000000,-0.607784,0.000000,4.667881,0.000000,-1.257233
LINE54,0.000000,0.817687,0.000000,3.795765,0.000000,0.351199
LINE55,0.000000,1.046518,0.000000,2.736154,0.000000,4.705191
LINE56,0.000000,4.664996,0.000000,3.059240,0.000000,0.317568
LINE57,0.000000,3.058793,0.000000,0.707684,0.000000,4.620274
LINE58,0.000000,2.521900,0.000000,2.940354,0.000000,2.728453
LINE59,0.000000,-1.333575,0.000000,-1.085132,0.000000,-1.172725
LINE60,0.000000,0.465024,0.000000,3.170249,0.000000,0.795543
LINE61,0.000000,1.366011,0.000000,2.473160,0.000000,4.700228
LINE62,0.000000,3.062762,0.000000,4.693781,0.000000,2.491917
LINE63,0.000000,3.513755,0.000000,1.463523,0.000000,4.628265
LINE64,0.000000,2.503146,0.000000,2.941771,0.000000,2.735114
LINE65,0.000000,2.530929,0.000000,2.696686,0.000000,1.553410
LINE66,0.000000,-1.011870,0.000000,-1.078673,0.000000,-1.220038
LINE67,0.000000,0.208843,0.000000,3.970130,0.000000,0.659604
LINE68,0.000000,1.224114,0.000000,2.473160,0.000000,4.684456
LINE69,0.000000,2.992017,0.000000,2.992017,0.000000,-0.075346
LINE70,0.000000,2.088810,0.000000,-0.097214,0.000000,3.231371
LINE71,0.000000,2.533250,0.000000,2.943311,0.000000,2.749658
LINE72,0.000000,4.638685,0.000000,1.304549,0.000000,2.946246
LINE73,0.000000,2.992017,0.000000,-0.075339,0.000000,2.935952
LINE74,0.000000,-1.236133,0.000000,-0.230077,0.000000,3.905035
LINE75,0.000000,-0.490735,0.000000,1.059499,0.000000,0.292386
LINE76,0.000000,1.393215,0.000000,2.686898,0.000000,4.674800
LINE77,0.000000,2.602627,0.000000,-0.615533,0.000000,-0.471516
LINE78,0.000000,2.535211,0.000000,2.943491,0.000000,2.749327
LINE79,0.000000,-1.112722,0.000000,0.193455,0.000000,4.168732
LINE80,0.000000,-0.307019,0.000000,4.447261,0.000000,0.058263
LINE81,0.000000,1.403967,0.000000,2.558061,0.000000,4.673016
LINE82,0.000000,1.495132,0.000000,4.585573,0.000000,3.598087
LINE83,0.000000,2.500587,0.000000,2.946458,0.000000,2.756537
LINE84,0.000000,4.463707,0.000000,-0.047351,0.000000,3.232395
LINE85,0.000000,-0.368790,0.000000,4.067112,0.000000,0.076795
LINE86,0.000000,1.322388,0.000000,2.528658,0.000000,4.645217
LINE87,0.000000,2.463564,0.000000,2.944066,0.000000,2.760656
LINE88,0.000000,4.012259,0.000000,0.274529,0.000000,0.300488
LINE89,0.000000,-0.247423,0.000000,3.394721,0.000000,0.240747
LINE90,0.000000,1.300886,0.000000,3.116661,0.000000,4.660813
LINE91,0.000000,2.505240,0.000000,2.942003,0.000000,2.767610
LINE92,0.000000,-1.378385,0.000000,0.924111,0.000000,-0.343598
LINE93,0.000000,1.545864,0.000000,2.653013,0.000000,4.701621
LINE94,0.000000,2.494549,0.000000,2.945767,0.000000,2.751497
LINE95,0.000000,0.213060,0.000000,2.039759,0.000000,0.215356
LINE96,0.000000,1.545864,0.000000,1.545864,0.000000,4.708111
LINE97,0.000000,2.531456,0.000000,2.952991,0.000000,2.682073
LINE98,0.000000,0.284593,0.000000,2.271887,0.000000,1.150332
LINE99,0.000000,2.331263,0.000000,0.438716,0.000000,4.676394
LINE100,0.000000,2.504896,0.000000,2.947323,0.000000,2.708628
LINE101,0.000000,0.359061,0.000000,0.912682,0.000000,1.955750
LINE102,0.000000,0.000000,0.000000,0.000000,0.000000,-0.024932
LINE103,0.000000,3.612082,0.000000,1.229535,0.000000,-1.040503
LINE104,0.000000,1.364806,0.000000,3.060914,0.000000,2.454200
LINE105,0.000000,0.234902,0.000000,0.968775,0.000000,2.708680
LINE106,0.000000,4.093114,0.000000,0.890063,0.000000,-0.954273
LINE107,0.000000,1.392630,0.000000,3.047570,0.000000,2.461052
LINE108,0.000000,0.378722,0.000000,0.876123,0.000000,1.900800
LINE109,0.000000,4.362710,0.000000,1.488461,0.000000,-1.264550
LINE110,0.000000,1.420599,0.000000,3.036497,0.000000,2.435023
LINE111,0.000000,0.405075,0.000000,0.528460,0.000000,1.547877
LINE112,0.000000,4.111658,0.000000,1.474967,0.000000,4.690624
LINE113,0.000000,1.420174,0.000000,3.039572,0.000000,2.442622
LINE114,0.000000,0.403189,0.000000,0.533566,0.000000,1.558425
LINE115,0.000000,4.241049,0.000000,1.291847,0.000000,-1.352245
LINE116,0.000000,1.596183,0.000000,0.066701,0.000000,0.408662
LINE117,0.000000,-1.387503,0.000000,3.075274,0.000000,2.994394
LINE118,0.000000,0.416072,0.000000,0.539325,0.000000,1.397250
LINE119,0.000000,4.009165,0.000000,0.967534,0.000000,-0.586768
LINE120,0.000000,1.711013,0.000000,2.505935,0.000000,-1.557964
LINE121,0.000000,1.570031,0.000000,0.108094,0.000000,0.484065
LINE122,0.000000,-1.387042,0.000000,3.075021,0.000000,2.996380
LINE123,0.000000,0.514260,0.000000,0.717951,0.000000,1.424290
LINE124,0.000000,4.528008,0.000000,1.438772,0.000000,0.403312
LINE125,0.000000,2.220605,0.000000,2.220605,0.000000,-1.561632
LINE126,0.000000,1.431485,0.000000,0.080997,0.000000,0.481295
LINE127,0.000000,-1.394044,0.000000,3.075116,0.000000,2.990738
LINE128,0.000000,0.493367,0.000000,0.679814,0.000000,1.334081
LINE129,0.000000,4.515870,0.000000,1.342794,0.000000,0.452392
LINE130,0.000000,2.558061,0.000000,2.528658,0.000000,-1.557923
LINE131,0.000000,-1.063962,0.000000,3.762225,0.000000,1.487419
LINE132,0.000000,1.502076,0.000000,0.188135,0.000000,0.339312
LINE133,0.000000,-1.408164,0.000000,3.076679,0.000000,2.990754
LINE134,0.000000,0.400955,0.000000,0.668773,0.000000,1.040413
LINE135,0.000000,-1.432479,0.000000,0.528228,0.000000,0.730491
LINE136,0.000000,2.473160,0.000000,2.653013,0.000000,-1.557903
LINE137,0.000000,-0.995753,0.000000,3.852438,0.000000,1.494491
LINE138,0.000000,1.504562,0.000000,0.184665,0.000000,0.343661
LINE139,0.000000,-1.471690,0.000000,3.077488,0.000000,2.993812
LINE140,0.000000,0.437553,0.000000,0.656315,0.000000,1.092318
LINE141,0.000000,4.645506,0.000000,0.915773,0.000000,0.847098
LINE142,0.000000,2.421922,0.000000,2.825204,0.000000,-1.560932
LINE143,0.000000,-1.061485,0.000000,3.891075,0.000000,1.492603
LINE144,0.000000,1.502118,0.000000,0.177476,0.000000,0.345389
LINE145,0.000000,-1.550800,0.000000,3.082376,0.000000,3.028722
LINE146,0.000000,0.501755,0.000000,0.639280,0.000000,1.910680
LINE147,0.000000,-1.554321,0.000000,0.852810,0.000000,0.936163
LINE148,0.000000,2.133867,0.000000,2.653013,0.000000,-1.561366
LINE149,0.000000,-1.405496,0.000000,3.870053,0.000000,1.479926
LINE150,0.000000,1.420561,0.000000,0.101406,0.000000,0.489588
LINE151,0.000000,2.852406,0.000000,2.463251,0.000000,4.685430
LINE152,0.000000,-1.555202,0.000000,3.083774,0.000000,3.023894
LINE153,0.000000,0.285375,0.000000,3.332034,0.000000,1.520913
LINE154,0.000000,4.704817,0.000000,0.778202,0.000000,1.010842
LINE155,0.000000,2.528658,0.000000,2.558061,0.000000,4.703299
LINE156,0.000000,4.678860,0.000000,3.903400,0.000000,1.439389
LINE157,0.000000,1.425003,0.000000,0.107462,0.000000,0.479129
LINE158,0.000000,2.873794,0.000000,2.378154,0.000000,4.689859
LINE159,0.000000,4.683296,0.000000,3.082032,0.000000,3.061629
LINE160,0.000000,0.588019,0.000000,3.739348,0.000000,2.413300
LINE161,0.000000,2.398808,0.000000,0.409101,0.000000,4.710957
LINE162,0.000000,-1.475333,0.000000,0.778053,0.000000,1.154783
LINE163,0.000000,1.545864,0.000000,2.065011,0.000000,4.704008
LINE164,0.000000,-1.495003,0.000000,3.882282,0.000000,1.450727
LINE165,0.000000,1.429039,0.000000,0.103701,0.000000,0.473894
LINE166,0.000000,2.755921,0.000000,2.358875,0.000000,4.699627
LINE167,0.000000,4.623170,0.000000,3.090316,0.000000,3.046128
LINE168,0.000000,2.026261,0.000000,0.092187,0.000000,1.537235
LINE169,0.000000,3.023179,0.000000,-0.054937,0.000000,4.680761
LINE170,0.000000,-1.445959,0.000000,0.797312,0.000000,1.133107
LINE171,0.000000,0.438716,0.000000,1.545864,0.000000,4.705741
LINE172,0.000000,-1.441161,0.000000,3.937722,0.000000,1.410921
LINE173,0.000000,1.458844,0.000000,0.074591,0.000000,0.467162
LINE174,0.000000,0.773181,0.000000,3.098330,0.000000,1.159112
LINE175,0.000000,2.865547,0.000000,1.940193,0.000000,-1.558569
LINE176,0.000000,4.661477,0.000000,3.093456,0.000000,3.037116
LINE177,0.000000,2.607052,0.000000,-0.865106,0.000000,1.550726
LINE178,0.000000,4.400256,0.000000,0.608062,0.000000,0.059987
LINE179,0.000000,-1.492237,0.000000,1.108556,0.000000,1.543941
LINE180,0.000000,-0.024932,0.000000,0.871123,0.000000,4.688118
LINE181,0.000000,4.674337,0.000000,3.956843,0.000000,1.363004
LINE182,0.000000,1.419805,0.000000,0.062357,0.000000,0.416168
LINE183,0.000000,0.816226,0.000000,3.125115,0.000000,1.204878
LINE184,0.000000,2.856853,0.000000,1.476919,0.000000,-1.543530
LINE185,0.000000,-1.544639,0.000000,3.092588,0.000000,3.051464
LINE186,0.000000,4.437911,0.000000,0.783343,0.000000,-0.300724
LINE187,0.000000,-1.500689,0.000000,1.096065,0.000000,1.543416
LINE188,0.000000,0.000000,0.000000,1.165358,0.000000,4.700702
LINE189,0.000000,4.504728,0.000000,3.975171,0.000000,1.351472
LINE190,0.000000,1.480494,0.000000,-0.716589,0.000000,4.540954
LINE191,0.000000,1.395913,0.000000,0.082083,0.000000,0.626197
LINE192,0.000000,0.772786,0.000000,3.128832,0.000000,1.189607
LINE193,0.000000,2.799866,0.000000,1.425492,0.000000,-1.542362
LINE194,0.000000,-1.564781,0.000000,3.094841,0.000000,3.040643
LINE195,0.000000,4.267996,0.000000,0.746912,0.000000,-0.388530
LINE196,0.000000,0.700033,0.000000,1.528730,0.000000,1.536312
LINE197,0.000000,-1.526060,0.000000,0.976201,0.000000,1.543077
LINE198,0.000000,2.653013,0.000000,1.545864,0.000000,1.542245
LINE199,0.000000,-1.514112,0.000000,3.998848,0.000000,1.265566
LINE200,0.000000,3.853549,0.000000,3.097053,0.000000,1.274095
LINE201,0.000000,1.388420,0.000000,0.249047,0.000000,0.318223
LINE202,0.000000,1.130163,0.000000,3.119527,0.000000,1.046624
LINE203,0.000000,2.842584,0.000000,1.386309,0.000000,-1.532095
LINE204,0.000000,-1.565099,0.000000,3.093488,0.000000,3.041276
LINE205,0.000000,0.384308,0.000000,0.161810,0.000000,1.626473
LINE206,0.000000,4.336996,0.000000,0.797520,0.000000,-0.268464
LINE207,0.000000,-0.544124,0.000000,-0.067117,0.000000,0.178124
LINE208,0.000000,4.362343,0.000000,1.016664,0.000000,1.512756
LINE209,0.000000,0.760466,0.000000,2.133867,0.000000,1.599028
LINE210,0.000000,-1.461862,0.000000,3.985918,0.000000,1.329633
LINE211,0.000000,1.390982,0.000000,0.077336,0.000000,0.397084
LINE212,0.000000,1.464747,0.000000,3.149770,0.000000,0.603427
LINE213,0.000000,2.784693,0.000000,1.242435,0.000000,-1.531980
LINE214,0.000000,4.679367,0.000000,3.090490,0.000000,3.011670
LINE215,0.000000,1.514838,0.000000,0.049280,0.000000,-1.536885
LINE216,0.000000,4.557739,0.000000,1.012195,0.000000,-0.047926
LINE217,0.000000,-1.331592,0.000000,2.652850,0.000000,1.540571
LINE218,0.000000,0.000000,0.000000,1.545864,0.000000,4.711129
LINE219,0.000000,-1.528477,0.000000,4.011661,0.000000,1.313638
LINE220,0.000000,0.969653,0.000000,-0.139774,0.000000,0.360972
LINE221,0.000000,1.542488,0.000000,3.101571,0.000000,-0.153743
LINE222,0.000000,2.766575,0.000000,0.971499,0.000000,-1.546838
LINE223,0.000000,4.644714,0.000000,3.090856,0.000000,3.008047
LINE224,0.000000,1.494311,0.000000,1.494311,0.000000,3.243223
LINE225,0.000000,4.037235,0.000000,1.316088,0.000000,0.546296
LINE226,0.000000,-0.675812,0.000000,2.620603,0.000000,1.557919
LINE227,0.000000,-1.022720,0.000000,4.070465,0.000000,1.271562
LINE228,0.000000,1.238279,0.000000,0.763173,0.000000,0.025976
LINE229,0.000000,1.563548,0.000000,3.134415,0.000000,-0.158586
LINE230,0.000000,2.812283,0.000000,1.031956,0.000000,-1.539511
LINE231,0.000000,4.611453,0.000000,3.089712,0.000000,2.986002
LINE232,0.000000,2.063146,0.000000,3.177813,0.000000,1.416550
LINE233,0.000000,3.600389,0.000000,1.241289,0.000000,2.913602
LINE234,0.000000,-0.674642,0.000000,4.560097,0.000000,1.568992
LINE235,0.000000,4.682240,0.000000,3.993258,0.000000,1.339815
LINE236,0.000000,1.297685,0.000000,3.987657,0.000000,0.553919
LINE237,0.000000,1.441254,0.000000,3.146569,0.000000,1.179218
LINE238,0.000000,2.763507,0.000000,0.773583,0.000000,-1.533209
LINE239,0.000000,4.570323,0.000000,3.090230,0.000000,2.989587
LINE240,0.000000,3.061100,0.000000,3.313198,0.000000,-0.044402
LINE241,0.000000,-0.878299,0.000000,0.394636,0.000000,1.548655
LINE242,0.000000,-1.479607,0.000000,3.601520,0.000000,-1.531607
LINE243,0.000000,0.865125,0.000000,3.445346,0.000000,0.464598
LINE244,0.000000,1.668242,0.000000,3.131705,0.000000,-0.795534
LINE245,0.000000,2.609092,0.000000,0.616158,0.000000,-1.541757
LINE246,0.000000,4.656828,0.000000,3.096290,0.000000,2.967371
LINE247,0.000000,2.992017,0.000000,2.992017,0.000000,-0.075346
LINE248,0.000000,3.080391,0.000000,-0.877066,0.000000,1.604207
LINE249,0.000000,4.606519,0.000000,-0.068246,0.000000,0.032946
LINE250,0.000000,-1.557103,0.000000,3.381630,0.000000,-1.479781
LINE251,0.000000,1.346693,0.000000,-0.212316,0.000000,0.641734
LINE252,0.000000,2.013406,0.000000,3.069245,0.000000,-0.988218
LINE253,0.000000,2.667016,0.000000,0.666134,0.000000,-1.540063
LINE254,0.000000,-0.880961,0.000000,1.207438,0.000000,4.682939
LINE255,0.000000,4.473993,0.000000,3.105912,0.000000,2.769767
LINE256,0.000000,4.658717,0.000000,2.608804,0.000000,1.400965
LINE257,0.000000,-1.563687,0.000000,3.229031,0.000000,-0.004684
LINE258,0.000000,1.158739,0.000000,-1.026192,0.000000,2.100126
LINE259,0.000000,2.072750,0.000000,3.095320,0.000000,-0.496262
LINE260,0.000000,2.780115,0.000000,0.535409,0.000000,-1.556754
LINE261,0.000000,-0.825736,0.000000,1.345556,0.000000,4.681657
LINE262,0.000000,4.464767,0.000000,3.105121,0.000000,2.765311
LINE263,0.000000,3.464434,0.000000,0.388163,0.000000,3.230032
LINE264,0.000000,-0.071511,0.000000,3.230187,0.000000,-0.039645
LINE265,0.000000,0.662955,0.000000,3.981825,0.000000,1.841996
LINE266,0.000000,2.165463,0.000000,3.069591,0.000000,-1.037619
LINE267,0.000000,4.620838,0.000000,0.399847,0.000000,-0.004363
LINE268,0.000000,2.882660,0.000000,0.296065,0.000000,4.701464
LINE269,0.000000,-1.031216,0.000000,1.523069,0.000000,4.678465
LINE270,0.000000,-0.883551,0.000000,3.465437,0.000000,1.629823
LINE271,0.000000,4.213310,0.000000,3.103887,0.000000,2.791802
LINE272,0.000000,0.084709,0.000000,3.311429,0.000000,2.992321
LINE273,0.000000,1.145413,0.000000,2.800188,0.000000,1.861296
LINE274,0.000000,2.512169,0.000000,3.003922,0.000000,-1.421334
LINE275,0.000000,4.635589,0.000000,1.524671,0.000000,0.057442
LINE276,0.000000,2.763879,0.000000,0.518859,0.000000,-1.557206
LINE277,0.000000,-1.291303,0.000000,2.464757,0.000000,4.681387
LINE278,0.000000,-0.904406,0.000000,3.613625,0.000000,1.647142
LINE279,0.000000,4.203418,0.000000,3.102397,0.000000,2.790275
LINE280,0.000000,3.046732,0.000000,3.306822,0.000000,4.696477
LINE281,0.000000,2.696789,0.000000,-0.385262,0.000000,2.707341
LINE282,0.000000,2.360085,0.000000,3.069540,0.000000,-1.435484
LINE283,0.000000,2.814324,0.000000,0.567521,0.000000,-1.544221
LINE284,0.000000,-1.441036,0.000000,1.779709,0.000000,4.676976
LINE285,0.000000,-0.802612,0.000000,3.406816,0.000000,1.613847
LINE286,0.000000,2.760919,0.000000,3.713021,0.000000,4.392538
LINE287,0.000000,-1.238517,0.000000,3.079540,0.000000,2.430122
LINE288,0.000000,4.635261,0.000000,1.547791,0.000000,0.033403
LINE289,0.000000,1.979417,0.000000,-1.045485,0.000000,2.179562
LINE290,0.000000,3.495283,0.000000,3.024440,0.000000,4.632424
LINE291,0.000000,2.476261,0.000000,3.081406,0.000000,1.207710
LINE292,0.000000,2.474113,0.000000,0.170201,0.000000,-1.561713
LINE293,0.000000,-1.331755,0.000000,2.339240,0.000000,4.680701
LINE294,0.000000,-0.663954,0.000000,3.367205,0.000000,1.592418
LINE295,0.000000,2.774480,0.000000,3.710168,0.000000,4.394585
LINE296,0.000000,-1.164079,0.000000,3.081431,0.000000,2.424477
LINE297,0.000000,3.045622,0.000000,3.025098,0.000000,4.617036
LINE298,0.000000,1.466985,0.000000,3.546165,0.000000,1.518625
LINE299,0.000000,2.629530,0.000000,0.562686,0.000000,-0.427716
LINE300,0.000000,-1.364085,0.000000,2.519360,0.000000,4.685525
LINE301,0.000000,-0.679341,0.000000,3.308173,0.000000,1.619506
LINE302,0.000000,2.759879,0.000000,3.701831,0.000000,4.397153
LINE303,0.000000,-1.110620,0.000000,3.081246,0.000000,2.425900
LINE304,0.000000,4.655470,0.000000,3.509160,0.000000,4.472647
LINE305,0.000000,2.894257,0.000000,-1.563863,0.000000,-1.488942
LINE306,0.000000,3.540478,0.000000,1.481301,0.000000,-0.305205
LINE307,0.000000,-1.066436,0.000000,3.296029,0.000000,4.681301
LINE308,0.000000,-0.604045,0.000000,3.443936,0.000000,1.582753
LINE309,0.000000,2.773461,0.000000,3.712714,0.000000,4.374569
LINE310,0.000000,-1.114237,0.000000,3.075902,0.000000,2.439512
LINE311,0.000000,3.528042,0.000000,2.798658,0.000000,4.691463
LINE312,0.000000,3.044406,0.000000,-0.523115,0.000000,-1.557407
LINE313,0.000000,2.992017,0.000000,2.992017,0.000000,-0.075346
LINE314,0.000000,-1.026223,0.000000,3.556219,0.000000,4.683131
LINE315,0.000000,-0.871495,0.000000,3.091777,0.000000,1.564510
LINE316,0.000000,3.916994,0.000000,0.815518,0.000000,-1.542060
LINE317,0.000000,2.588789,0.000000,3.692083,0.000000,4.355665
LINE318,0.000000,-0.996605,0.000000,3.056917,0.000000,2.436234
LINE319,0.000000,-0.149575,0.000000,-0.149575,0.000000,3.066247
LINE320,0.000000,4.636548,0.000000,1.482166,0.000000,-1.553705
LINE321,0.000000,-0.975003,0.000000,3.308052,0.000000,4.687187
LINE322,0.000000,3.552408,0.000000,2.075017,0.000000,-0.411703
LINE323,0.000000,3.778899,0.000000,0.855891,0.000000,-1.546784
LINE324,0.000000,2.579205,0.000000,3.693931,0.000000,4.355270
LINE325,0.000000,-0.333330,0.000000,3.080366,0.000000,2.405952
LINE326,0.000000,4.585188,0.000000,1.495137,0.000000,3.605246
LINE327,0.000000,-0.786367,0.000000,3.059715,0.000000,4.686306
LINE328,0.000000,4.544667,0.000000,4.544667,0.000000,1.477304
LINE329,0.000000,3.851702,0.000000,0.879961,0.000000,4.707787
LINE330,0.000000,3.861496,0.000000,3.657052,0.000000,1.831284
LINE331,0.000000,2.571079,0.000000,3.689878,0.000000,4.357046
LINE332,0.000000,0.681323,0.000000,3.080638,0.000000,2.358784
LINE333,0.000000,-0.883329,0.000000,3.131684,0.000000,4.682532
LINE334,0.000000,3.506919,0.000000,3.506919,0.000000,-1.484560
LINE335,0.000000,3.893823,0.000000,0.904028,0.000000,4.690464
LINE336,0.000000,-0.149575,0.000000,-0.149575,0.000000,3.066247
LINE337,0.000000,-0.658446,0.000000,-1.565314,0.000000,1.610170
LINE338,0.000000,2.563841,0.000000,3.367411,0.000000,4.426808
LINE339,0.000000,-0.506008,0.000000,3.082365,0.000000,2.340503
LINE340,0.000000,-0.905619,0.000000,3.199367,0.000000,4.678797
LINE341,0.000000,4.665176,0.000000,3.524197,0.000000,0.138221
LINE342,0.000000,4.228838,0.000000,0.365615,0.000000,1.569085
LINE343,0.000000,4.421074,0.000000,0.872197,0.000000,1.538104
LINE344,0.000000,-0.667935,0.000000,4.712316,0.000000,1.609259
LINE345,0.000000,2.557009,0.000000,3.350793,0.000000,4.433573
LINE346,0.000000,-0.296432,0.000000,3.036020,0.000000,2.294460
LINE347,0.000000,-0.825586,0.000000,3.563042,0.000000,4.683498
LINE348,0.000000,4.568201,0.000000,1.495375,0.000000,4.206763
LINE349,0.000000,3.856691,0.000000,1.028623,0.000000,-0.437955
LINE350,0.000000,-0.741551,0.000000,-1.448384,0.000000,1.614076
LINE351,0.000000,2.532518,0.000000,3.361787,0.000000,4.427703
LINE352,0.000000,-0.404088,0.000000,2.996053,0.000000,2.328220
LINE353,0.000000,-1.386086,0.000000,4.628261,0.000000,4.694793
LINE354,0.000000,3.534074,0.000000,0.820255,0.000000,4.472825
LINE355,0.000000,-0.658046,0.000000,-1.334209,0.000000,1.731282
LINE356,0.000000,2.546552,0.000000,3.267191,0.000000,4.423435
LINE357,0.000000,-0.578837,0.000000,3.007159,0.000000,2.276420
LINE358,0.000000,4.648443,0.000000,3.611453,0.000000,-1.564031
LINE359,0.000000,4.638194,0.000000,1.492245,0.000000,3.066247
LINE360,0.000000,-0.861287,0.000000,-0.530548,0.000000,4.636539
LINE361,0.000000,2.487241,0.000000,3.348529,0.000000,4.434569
LINE362,0.000000,0.087397,0.000000,3.034419,0.000000,2.489056
LINE363,0.000000,4.656998,0.000000,3.288226,0.000000,4.700690
LINE364,0.000000,-0.892528,0.000000,0.909884,0.000000,1.549974
LINE365,0.000000,-0.980432,0.000000,-0.229817,0.000000,0.185536
LINE366,0.000000,2.568712,0.000000,3.333027,0.000000,4.426778
LINE367,0.000000,-0.196968,0.000000,3.066624,0.000000,2.415289
LINE368,0.000000,-0.534099,0.000000,3.058345,0.000000,2.884426
LINE369,0.000000,-0.561678,0.000000,2.623748,0.000000,1.600723
LINE370,0.000000,-0.667058,0.000000,-0.059509,0.000000,2.837646
LINE371,0.000000,2.542486,0.000000,3.327577,0.000000,4.421455
LINE372,0.000000,-0.327897,0.000000,3.070743,0.000000,2.468296
LINE373,0.000000,0.304355,0.000000,2.590912,0.000000,4.625844
LINE374,0.000000,-0.887194,0.000000,0.708504,0.000000,1.678112
LINE375,0.000000,-0.871324,0.000000,0.060535,0.000000,4.347498
LINE376,0.000000,2.553378,0.000000,3.307874,0.000000,4.421289
LINE377,0.000000,-0.237083,0.000000,3.061730,0.000000,2.358504
LINE378,0.000000,3.621070,0.000000,4.124168,0.000000,-1.524326
LINE379,0.000000,2.584263,0.000000,4.672314,0.000000,4.445692
LINE380,0.000000,3.099869,0.000000,0.359352,0.000000,1.568010
LINE381,0.000000,-0.889095,0.000000,0.090452,0.000000,1.926256
LINE382,0.000000,2.526717,0.000000,3.331176,0.000000,4.414199
LINE383,0.000000,-0.242495,0.000000,3.061827,0.000000,2.365317
LINE384,0.000000,4.282607,0.000000,3.528811,0.000000,1.538022
LINE385,0.000000,2.059189,0.000000,-0.769688,0.000000,-1.540107
LINE386,0.000000,2.992017,0.000000,-0.075236,0.000000,-0.063909
LINE387,0.000000,-0.149575,0.000000,-0.149575,0.000000,3.066247
LINE388,0.000000,4.638774,0.000000,1.430761,0.000000,4.651977
LINE389,0.000000,2.547845,0.000000,3.372924,0.000000,4.416255
LINE390,0.000000,-0.286453,0.000000,3.064217,0.000000,2.438855
LINE391,0.000000,4.299383,0.000000,3.535702,0.000000,1.537937
LINE392,0.000000,2.019338,0.000000,-0.875538,0.000000,-1.541388
LINE393,0.000000,3.059207,0.000000,1.467078,0.000000,4.685049
LINE394,0.000000,2.558088,0.000000,3.327939,0.000000,4.419702
LINE395,0.000000,2.341614,0.000000,2.882601,0.000000,-1.564816
LINE396,0.000000,-0.542320,0.000000,3.050655,0.000000,2.273222
LINE397,0.000000,4.434596,0.000000,3.605610,0.000000,1.584281
LINE398,0.000000,1.508273,0.000000,-0.830725,0.000000,-1.540360
LINE399,0.000000,-0.315863,0.000000,3.511820,0.000000,0.919634
LINE400,0.000000,2.590580,0.000000,3.342042,0.000000,4.422968
LINE401,0.000000,2.454742,0.000000,2.845764,0.000000,-1.563214
LINE402,0.000000,-0.540509,0.000000,3.051896,0.000000,2.278056
LINE403,0.000000,4.185402,0.000000,3.527880,0.000000,1.505910
LINE404,0.000000,1.497663,0.000000,4.633452,0.000000,-1.530892
LINE405,0.000000,4.636770,0.000000,1.440696,0.000000,0.523618
LINE406,0.000000,2.580205,0.000000,3.271199,0.000000,4.427543
LINE407,0.000000,2.427328,0.000000,2.782877,0.000000,-1.557530
LINE408,0.000000,2.502035,0.000000,3.149348,0.000000,4.428727
LINE409,0.000000,-0.618828,0.000000,3.015385,0.000000,1.947182
LINE410,0.000000,3.088538,0.000000,2.609690,0.000000,1.441606
LINE411,0.000000,2.500898,0.000000,4.159137,0.000000,-1.543158
LINE412,0.000000,2.629888,0.000000,3.241790,0.000000,4.430510
LINE413,0.000000,2.448732,0.000000,2.768742,0.000000,-1.565542
LINE414,0.000000,2.502153,0.000000,3.150733,0.000000,4.431832
LINE415,0.000000,-0.616363,0.000000,3.006447,0.000000,1.939536
LINE416,0.000000,-0.156865,0.000000,4.448131,0.000000,-1.494895
LINE417,0.000000,1.987453,0.000000,3.844931,0.000000,-1.542664
LINE418,0.000000,2.598404,0.000000,3.235691,0.000000,4.433624
LINE419,0.000000,2.676497,0.000000,2.746181,0.000000,4.707360
LINE420,0.000000,2.486264,0.000000,3.140324,0.000000,4.441309
LINE421,0.000000,-0.733883,0.000000,3.098338,0.000000,1.985204
LINE422,0.000000,4.608218,0.000000,-0.061293,0.000000,4.710686
LINE423,0.000000,1.722900,0.000000,3.797498,0.000000,-1.530130
LINE424,0.000000,2.614258,0.000000,3.194684,0.000000,4.434185
LINE425,0.000000,3.552922,0.000000,0.140172,0.000000,2.032950
LINE426,0.000000,2.901919,0.000000,2.700187,0.000000,4.707202
LINE427,0.000000,2.468119,0.000000,3.126773,0.000000,4.474828
LINE428,0.000000,-0.697907,0.000000,3.182202,0.000000,1.963094
LINE429,0.000000,3.505405,0.000000,0.095495,0.000000,4.691003
LINE430,0.000000,1.707546,0.000000,3.788053,0.000000,-1.523659
LINE431,0.000000,2.620377,0.000000,3.186064,0.000000,4.439858
LINE432,0.000000,3.654569,0.000000,-1.276712,0.000000,2.003237
LINE433,0.000000,2.878638,0.000000,2.688786,0.000000,4.703416
LINE434,0.000000,2.552306,0.000000,3.185951,0.000000,4.484717
LINE435,0.000000,-0.561187,0.000000,3.162857,0.000000,1.944219
LINE436,0.000000,4.610954,0.000000,-0.521445,0.000000,4.625873
LINE437,0.000000,1.695990,0.000000,3.847727,0.000000,-1.506065
LINE438,0.000000,2.620901,0.000000,3.176759,0.000000,4.438844
LINE439,0.000000,-0.180622,0.000000,-0.370416,0.000000,4.626049
LINE440,0.000000,2.903584,0.000000,2.693165,0.000000,4.700413
LINE441,0.000000,2.548275,0.000000,3.282640,0.000000,4.487743
LINE442,0.000000,-0.386196,0.000000,3.245006,0.000000,2.963868
LINE443,0.000000,3.506927,0.000000,1.103361,0.000000,-1.550157
LINE444,0.000000,1.285998,0.000000,3.953413,0.000000,-1.538279
LINE445,0.000000,2.620492,0.000000,3.178136,0.000000,4.438345
LINE446,0.000000,0.949101,0.000000,-1.158795,0.000000,0.965185
LINE447,0.000000,2.922885,0.000000,2.672992,0.000000,4.678369
LINE448,0.000000,2.452856,0.000000,3.306033,0.000000,4.400106
LINE449,0.000000,-0.374834,0.000000,3.237307,0.000000,2.372340
LINE450,0.000000,-1.229642,0.000000,3.094293,0.000000,1.522780
LINE451,0.000000,1.358781,0.000000,3.886681,0.000000,-1.543437
LINE452,0.000000,2.602822,0.000000,3.189937,0.000000,4.431736
LINE453,0.000000,1.319513,0.000000,4.572971,0.000000,-1.534519
LINE454,0.000000,2.810013,0.000000,2.715542,0.000000,4.673753
LINE455,0.000000,2.563551,0.000000,3.381060,0.000000,4.225533
LINE456,0.000000,-0.058815,0.000000,3.276860,0.000000,3.220117
LINE457,0.000000,1.495139,0.000000,1.495139,0.000000,3.343700
LINE458,0.000000,1.703380,0.000000,4.311137,0.000000,-1.553828
LINE459,0.000000,2.527577,0.000000,3.207256,0.000000,4.473377
LINE460,0.000000,0.990482,0.000000,3.097028,0.000000,0.784476
LINE461,0.000000,2.817831,0.000000,0.200759,0.000000,1.559774
LINE462,0.000000,2.826383,0.000000,2.661068,0.000000,4.666594
LINE463,0.000000,2.499485,0.000000,3.397904,0.000000,4.216763
LINE464,0.000000,-0.367589,0.000000,3.292432,0.000000,3.363657
LINE465,0.000000,1.378895,0.000000,4.305893,0.000000,-1.558006
LINE466,0.000000,2.545957,0.000000,3.236452,0.000000,4.469517
LINE467,0.000000,-0.834297,0.000000,3.267844,0.000000,1.416735
LINE468,0.000000,3.098788,0.000000,0.676351,0.000000,1.877513
LINE469,0.000000,2.811880,0.000000,0.159053,0.000000,1.562327
LINE470,0.000000,2.744541,0.000000,2.619521,0.000000,4.672063
LINE471,0.000000,2.451394,0.000000,3.288548,0.000000,4.294403
LINE472,0.000000,-0.182771,0.000000,3.513160,0.000000,3.547230
LINE473,0.000000,1.325578,0.000000,4.476326,0.000000,-1.554414
LINE474,0.000000,2.540199,0.000000,3.251475,0.000000,4.466082
LINE475,0.000000,-0.309892,0.000000,2.448144,0.000000,1.391071
LINE476,0.000000,2.816102,0.000000,0.202710,0.000000,1.549541
LINE477,0.000000,2.881982,0.000000,2.612796,0.000000,4.681052
LINE478,0.000000,2.402316,0.000000,3.169085,0.000000,4.137120
LINE479,0.000000,-0.681661,0.000000,3.475286,0.000000,4.174933
LINE480,0.000000,1.495073,0.000000,4.634670,0.000000,-1.565611
LINE481,0.000000,2.551909,0.000000,3.310697,0.000000,4.383844
LINE482,0.000000,-0.775036,0.000000,3.373216,0.000000,1.894118
LINE483,0.000000,2.518431,0.000000,0.781132,0.000000,-1.538928
LINE484,0.000000,3.003972,0.000000,0.095077,0.000000,1.540853
LINE485,0.000000,2.768797,0.000000,2.596090,0.000000,4.664840
LINE486,0.000000,2.641484,0.000000,3.360011,0.000000,4.129717
LINE487,0.000000,-0.788743,0.000000,3.533997,0.000000,4.357189
LINE488,0.000000,1.484127,0.000000,4.257278,0.000000,4.661197
LINE489,0.000000,2.558745,0.000000,3.304445,0.000000,4.388307
LINE490,0.000000,2.458118,0.000000,2.890956,0.000000,2.829690
LINE491,0.000000,2.541329,0.000000,0.840753,0.000000,-1.539705
LINE492,0.000000,4.635221,0.000000,1.494985,0.000000,1.557755
LINE493,0.000000,3.144688,0.000000,0.258156,0.000000,1.557891
LINE494,0.000000,2.966146,0.000000,2.593734,0.000000,4.693930
LINE495,0.000000,2.707170,0.000000,3.303131,0.000000,4.095192
LINE496,0.000000,-0.598152,0.000000,3.561384,0.000000,4.184287
LINE497,0.000000,0.254959,0.000000,4.028562,0.000000,4.663641
LINE498,0.000000,2.531668,0.000000,3.300080,0.000000,4.390014
LINE499,0.000000,2.224217,0.000000,3.247869,0.000000,1.515959
LINE500,0.000000,2.745699,0.000000,0.735499,0.000000,-1.544620
LINE501,0.000000,3.513341,0.000000,4.668479,0.000000,4.686628
LINE502,0.000000,3.056875,0.000000,0.361124,0.000000,1.560819
LINE503,0.000000,2.595537,0.000000,2.271699,0.000000,4.687503
LINE504,0.000000,2.696012,0.000000,3.301732,0.000000,4.110127
LINE505,0.000000,-0.780630,0.000000,3.591483,0.000000,4.373781
LINE506,0.000000,2.608350,0.000000,1.467595,0.000000,4.452311
LINE507,0.000000,2.513564,0.000000,3.305266,0.000000,4.349865
LINE508,0.000000,1.342095,0.000000,1.342095,0.000000,4.137028
LINE509,0.000000,2.534346,0.000000,0.755492,0.000000,-1.531458
LINE510,0.000000,3.087001,0.000000,0.361333,0.000000,1.564049
LINE511,0.000000,2.591588,0.000000,2.261592,0.000000,4.648311
LINE512,0.000000,-0.102216,0.000000,0.385442,0.000000,1.742004
LINE513,0.000000,2.707430,0.000000,3.295959,0.000000,4.081959
LINE514,0.000000,-0.782696,0.000000,3.643815,0.000000,4.075214
LINE515,0.000000,2.900355,0.000000,3.220653,0.000000,4.318335
LINE516,0.000000,2.656360,0.000000,2.025958,0.000000,0.896657
LINE517,0.000000,0.787197,0.000000,-0.257953,0.000000,-1.523817
LINE518,0.000000,2.578178,0.000000,1.452053,0.000000,-1.526336
LINE519,0.000000,3.089598,0.000000,0.348908,0.000000,1.577294
LINE520,0.000000,1.467320,0.000000,2.596902,0.000000,4.670233
LINE521,0.000000,4.611716,0.000000,1.495478,0.000000,1.569768
LINE522,0.000000,2.689318,0.000000,3.292818,0.000000,4.086515
LINE523,0.000000,-0.601579,0.000000,3.593662,0.000000,3.138905
LINE524,0.000000,2.933086,0.000000,3.232483,0.000000,4.307639
LINE525,0.000000,0.774273,0.000000,3.159138,0.000000,-1.188679
LINE526,0.000000,0.783388,0.000000,-0.262004,0.000000,-1.518899
LINE527,0.000000,1.506568,0.000000,0.406994,0.000000,-1.518209
LINE528,0.000000,3.100717,0.000000,0.324091,0.000000,1.585349
LINE529,0.000000,2.588270,0.000000,3.867857,0.000000,4.554401
LINE530,0.000000,2.675130,0.000000,3.097048,0.000000,4.144310
LINE531,0.000000,-0.361300,0.000000,3.695576,0.000000,2.103426
LINE532,0.000000,2.980119,0.000000,3.217888,0.000000,4.316962
LINE533,0.000000,0.576318,0.000000,2.446846,0.000000,4.062721
LINE534,0.000000,0.813563,0.000000,-0.265343,0.000000,-1.529211
LINE535,0.000000,2.597598,0.000000,1.471323,0.000000,-1.472413
LINE536,0.000000,2.924658,0.000000,-0.082431,0.000000,1.588942
LINE537,0.000000,4.636383,0.000000,4.636754,0.000000,1.483822
LINE538,0.000000,2.992017,0.000000,2.992017,0.000000,-0.075346
LINE539,0.000000,2.935916,0.000000,3.319043,0.000000,3.975299
LINE540,0.000000,-0.766906,0.000000,3.597809,0.000000,1.385720
LINE541,0.000000,3.000758,0.000000,3.226658,0.000000,4.314201
LINE542,0.000000,1.161942,0.000000,0.320698,0.000000,2.738828
LINE543,0.000000,0.780172,0.000000,-0.279325,0.000000,-1.506780
LINE544,0.000000,0.367240,0.000000,0.908546,0.000000,1.520136
LINE545,0.000000,2.897327,0.000000,-0.089717,0.000000,1.589509
LINE546,0.000000,-0.526414,0.000000,4.626191,0.000000,2.959891
LINE547,0.000000,3.107702,0.000000,2.741264,0.000000,4.185107
LINE548,0.000000,0.513337,0.000000,3.456126,0.000000,0.882370
LINE549,0.000000,3.041211,0.000000,3.215740,0.000000,4.318338
LINE550,0.000000,2.955838,0.000000,-0.082707,0.000000,1.315039
LINE551,0.000000,0.620472,0.000000,-0.601900,0.000000,-1.425605
LINE552,0.000000,2.596171,0.000000,-0.149575,0.000000,4.410276
LINE553,0.000000,0.720549,0.000000,4.605678,0.000000,-1.544239
LINE554,0.000000,2.923229,0.000000,-0.286148,0.000000,1.585335
LINE555,0.000000,1.491410,0.000000,4.639028,0.000000,3.066247
LINE556,0.000000,3.109501,0.000000,2.377786,0.000000,3.395944
LINE557,0.000000,2.923177,0.000000,3.163887,0.000000,0.424534
LINE558,0.000000,3.041922,0.000000,3.226059,0.000000,4.316952
LINE559,0.000000,0.470341,0.000000,3.309330,0.000000,4.380519
LINE560,0.000000,0.580565,0.000000,-0.553071,0.000000,-0.095926
LINE561,0.000000,4.639380,0.000000,4.639380,0.000000,2.758186
LINE562,0.000000,2.992017,0.000000,2.992017,0.000000,-0.075346
LINE563,0.000000,2.666375,0.000000,-1.486277,0.000000,1.571291
LINE564,0.000000,3.306178,0.000000,2.498767,0.000000,1.735226
LINE565,0.000000,1.172891,0.000000,-0.949641,0.000000,1.748419
LINE566,0.000000,4.322708,0.000000,3.169056,0.000000,4.405539
LINE567,0.000000,-0.930356,0.000000,0.164877,0.000000,-1.100439
LINE568,0.000000,2.855154,0.000000,0.036760,0.000000,1.565094
LINE569,0.000000,-0.070694,0.000000,4.622655,0.000000,1.534622
LINE570,0.000000,2.618752,0.000000,2.090824,0.000000,1.569779
LINE571,0.000000,3.592717,0.000000,3.592717,0.000000,1.586023
LINE572,0.000000,0.892091,0.000000,3.166397,0.000000,4.425867
LINE573,0.000000,3.486544,0.000000,0.266231,0.000000,4.513939
LINE574,0.000000,2.833860,0.000000,0.069272,0.000000,1.566180
LINE575,0.000000,-0.313527,0.000000,4.610269,0.000000,2.826606
LINE576,0.000000,2.434161,0.000000,1.435959,0.000000,1.567631
LINE577,0.000000,3.550731,0.000000,3.435725,0.000000,1.640998
LINE578,0.000000,2.827035,0.000000,3.241044,0.000000,4.571877
LINE579,0.000000,0.078666,0.000000,3.247100,0.000000,4.580609
LINE580,0.000000,0.619989,0.000000,3.232600,0.000000,4.440141
LINE581,0.000000,2.782534,0.000000,0.303810,0.000000,1.568174
LINE582,0.000000,-0.194327,0.000000,4.020198,0.000000,2.043635
LINE583,0.000000,2.619804,0.000000,1.401573,0.000000,1.543194
LINE584,0.000000,-1.482073,0.000000,3.716436,0.000000,1.595355
LINE585,0.000000,3.331190,0.000000,3.257718,0.000000,4.225749
LINE586,0.000000,3.205322,0.000000,3.222340,0.000000,-1.544155
LINE587,0.000000,1.215715,0.000000,-1.168921,0.000000,3.403738
LINE588,0.000000,-0.348093,0.000000,2.955944,0.000000,4.404813
LINE589,0.000000,2.656929,0.000000,0.282680,0.000000,1.561129
LINE590,0.000000,0.726837,0.000000,-0.543575,0.000000,4.559028
LINE591,0.000000,2.614268,0.000000,1.454902,0.000000,1.478256
LINE592,0.000000,4.670811,0.000000,3.689917,0.000000,1.593443
LINE593,0.000000,3.350987,0.000000,3.229423,0.000000,4.170197
LINE594,0.000000,-0.216002,0.000000,3.440010,0.000000,1.859506
LINE595,0.000000,3.479017,0.000000,0.905580,0.000000,4.566499
LINE596,0.000000,0.215937,0.000000,3.070867,0.000000,4.416777
LINE597,0.000000,2.701443,0.000000,0.504211,0.000000,1.571495
LINE598,0.000000,2.992017,0.000000,4.635621,0.000000,1.466210
LINE599,0.000000,2.825691,0.000000,3.590031,0.000000,1.507496
LINE600,0.000000,-1.088190,0.000000,3.723081,0.000000,1.592865
LINE601,0.000000,3.238166,0.000000,0.375954,0.000000,1.538394
LINE602,0.000000,3.343377,0.000000,3.223879,0.000000,4.230571
LINE603,0.000000,0.134613,0.000000,3.532215,0.000000,1.673753
LINE604,0.000000,2.771363,0.000000,3.740280,0.000000,0.372818
LINE605,0.000000,2.196071,0.000000,-0.050439,0.000000,1.325625
LINE606,0.000000,4.621591,0.000000,-0.393050,0.000000,1.394180
LINE607,0.000000,-0.612544,0.000000,3.540625,0.000000,1.482700
LINE608,0.000000,0.399567,0.000000,3.454913,0.000000,4.300110
LINE609,0.000000,2.700182,0.000000,0.661946,0.000000,1.572806
LINE610,0.000000,4.622450,0.000000,-0.061304,0.000000,0.420117
LINE611,0.000000,3.058226,0.000000,0.393159,0.000000,-1.556970
LINE612,0.000000,-0.604125,0.000000,3.717247,0.000000,1.589559
LINE613,0.000000,2.607732,0.000000,-0.083201,0.000000,-0.153710
LINE614,0.000000,3.344842,0.000000,3.219445,0.000000,4.272189
LINE615,0.000000,0.032150,0.000000,3.319053,0.000000,1.575225
LINE616,0.000000,1.710782,0.000000,4.282336,0.000000,-0.907312
LINE617,0.000000,1.996854,0.000000,4.270130,0.000000,1.024296
LINE618,0.000000,-0.602551,0.000000,2.602469,0.000000,3.594782
LINE619,0.000000,0.077998,0.000000,-0.156858,0.000000,4.407656
LINE620,0.000000,2.647124,0.000000,0.540095,0.000000,1.573861
LINE621,0.000000,-0.064070,0.000000,0.425103,0.000000,-1.518564
LINE622,0.000000,-0.623075,0.000000,3.807418,0.000000,1.585814
LINE623,0.000000,2.948785,0.000000,-0.369902,0.000000,-1.549545
LINE624,0.000000,3.398904,0.000000,3.195244,0.000000,4.009043
LINE625,0.000000,0.056836,0.000000,3.684800,0.000000,1.567241
LINE626,0.000000,0.278077,0.000000,-1.558352,0.000000,3.945514
LINE627,0.000000,2.684084,0.000000,0.668934,0.000000,1.562259
LINE628,0.000000,1.480527,0.000000,3.540840,0.000000,3.428946
LINE629,0.000000,-1.347862,0.000000,3.914068,0.000000,1.577084
LINE630,0.000000,3.006005,0.000000,-0.381595,0.000000,-1.518599
LINE631,0.000000,3.369529,0.000000,3.180152,0.000000,4.236380
LINE632,0.000000,0.097630,0.000000,4.644870,0.000000,1.551840
LINE633,0.000000,0.643090,0.000000,0.331779,0.000000,4.462644
LINE634,0.000000,2.648144,0.000000,0.504424,0.000000,1.565519
LINE635,0.000000,-0.820486,0.000000,4.060947,0.000000,1.584800
LINE636,0.000000,2.595697,0.000000,3.070560,0.000000,-1.570347
LINE637,0.000000,3.382545,0.000000,3.198216,0.000000,3.171484
LINE638,0.000000,0.000000,0.000000,-0.067519,0.000000,1.607280
LINE639,0.000000,0.151443,0.000000,-1.349951,0.000000,4.374766
LINE640,0.000000,2.636064,0.000000,0.511164,0.000000,1.577004
LINE641,0.000000,-0.832309,0.000000,4.295619,0.000000,1.578011
LINE642,0.000000,2.410362,0.000000,3.869874,0.000000,4.707350
LINE643,0.000000,3.310098,0.000000,3.249059,0.000000,4.257972
LINE644,0.000000,-0.468727,0.000000,3.992938,0.000000,4.134849
LINE645,0.000000,2.635439,0.000000,0.401982,0.000000,1.570292
LINE646,0.000000,-0.780900,0.000000,4.095262,0.000000,1.582067
LINE647,0.000000,1.485139,0.000000,3.395731,0.000000,-1.506080
LINE648,0.000000,3.414911,0.000000,3.280882,0.000000,3.981161
LINE649,0.000000,1.669119,0.000000,0.195546,0.000000,4.620811
LINE650,0.000000,2.612351,0.000000,0.529772,0.000000,1.629189
LINE651,0.000000,-0.760060,0.000000,4.138454,0.000000,1.581437
LINE652,0.000000,1.481125,0.000000,2.585776,0.000000,4.680895
LINE653,0.000000,3.281887,0.000000,3.270137,0.000000,4.598197
LINE654,0.000000,3.060570,0.000000,0.225933,0.000000,4.642537
LINE655,0.000000,2.754913,0.000000,1.399038,0.000000,1.656328
LINE656,0.000000,0.246677,0.000000,4.036894,0.000000,1.558724
LINE657,0.000000,-0.711073,0.000000,4.458516,0.000000,1.579707
LINE658,0.000000,1.952245,0.000000,2.609701,0.000000,4.688824
LINE659,0.000000,3.250364,0.000000,3.098397,0.000000,1.668599
LINE660,0.000000,2.816631,0.000000,0.270479,0.000000,-1.435092
LINE661,0.000000,2.594868,0.000000,0.386454,0.000000,4.707161
LINE662,0.000000,0.177311,0.000000,3.511436,0.000000,4.708478
LINE663,0.000000,-0.741939,0.000000,4.096781,0.000000,1.577488
LINE664,0.000000,2.074033,0.000000,2.602980,0.000000,4.526968
LINE665,0.000000,3.169054,0.000000,3.140389,0.000000,1.637664
LINE666,0.000000,2.640423,0.000000,0.710452,0.000000,4.531398
LINE667,0.000000,1.524991,0.000000,-0.082299,0.000000,-0.214374
LINE668,0.000000,0.401490,0.000000,3.697042,0.000000,-1.489317
LINE669,0.000000,-0.673299,0.000000,4.207500,0.000000,1.575488
LINE670,0.000000,-0.061305,0.000000,2.225986,0.000000,4.662561
LINE671,0.000000,2.828534,0.000000,0.462828,0.000000,-1.569782
LINE672,0.000000,3.292170,0.000000,3.283602,0.000000,1.594762
LINE673,0.000000,4.683588,0.000000,0.006943,0.000000,1.147455
LINE674,0.000000,-0.539116,0.000000,4.622245,0.000000,1.482545
LINE675,0.000000,-0.149575,0.000000,3.066269,0.000000,3.220061
LINE676,0.000000,-0.767557,0.000000,3.983404,0.000000,1.578040
LINE677,0.000000,3.419470,0.000000,0.388931,0.000000,-0.146994
LINE678,0.000000,2.796866,0.000000,0.486727,0.000000,4.709414
LINE679,0.000000,3.399065,0.000000,3.264455,0.000000,1.588028
LINE680,0.000000,0.419433,0.000000,2.424607,0.000000,0.372017
LINE681,0.000000,0.388726,0.000000,3.430667,0.000000,-0.191108
LINE682,0.000000,-0.921511,0.000000,4.150461,0.000000,1.577599
LINE683,0.000000,3.524140,0.000000,1.466962,0.000000,4.704446
LINE684,0.000000,2.722608,0.000000,0.420706,0.000000,-1.566655
LINE685,0.000000,3.426208,0.000000,3.257437,0.000000,1.587027
LINE686,0.000000,-0.719779,0.000000,4.108668,0.000000,1.585384
LINE687,0.000000,1.496357,0.000000,4.634082,0.000000,-0.075346
LINE688,0.000000,2.599733,0.000000,0.394814,0.000000,-1.569246
LINE689,0.000000,0.314592,0.000000,3.602857,0.000000,4.665732
LINE690,0.000000,3.430234,0.000000,3.146759,0.000000,1.584603
LINE691,0.000000,-0.910867,0.000000,3.870841,0.000000,1.586668
LINE692,0.000000,2.664687,0.000000,0.320491,0.000000,-1.541667
LINE693,0.000000,0.355766,0.000000,3.589622,0.000000,4.678194
LINE694,0.000000,4.637566,0.000000,4.636533,0.000000,1.522077
LINE695,0.000000,4.612655,0.000000,-0.310930,0.000000,-0.025763
LINE696,0.000000,3.405369,0.000000,3.142910,0.000000,1.580440
LINE697,0.000000,-0.998511,0.000000,3.950443,0.000000,1.582435
LINE698,0.000000,2.732586,0.000000,0.346267,0.000000,4.712088
LINE699,0.000000,0.471907,0.000000,3.561655,0.000000,4.533632
LINE700,0.000000,0.613036,0.000000,3.851996,0.000000,2.676867
LINE701,0.000000,1.495949,0.000000,1.604446,0.000000,-1.554906
LINE702,0.000000,3.398035,0.000000,3.144057,0.000000,1.574906
LINE703,0.000000,-1.015912,0.000000,4.065806,0.000000,1.581343
LINE704,0.000000,2.671772,0.000000,0.350910,0.000000,-1.568628
LINE705,0.000000,0.564609,0.000000,3.579350,0.000000,3.104722
LINE706,0.000000,0.704057,0.000000,3.353603,0.000000,1.537517
LINE707,0.000000,3.251348,0.000000,0.846994,0.000000,1.259233
LINE708,0.000000,-1.019699,0.000000,4.074344,0.000000,1.580635
LINE709,0.000000,2.643741,0.000000,0.384201,0.000000,-1.570411
LINE710,0.000000,0.053227,0.000000,3.458261,0.000000,2.848908
LINE711,0.000000,-0.241697,0.000000,3.507296,0.000000,1.540269
LINE712,0.000000,2.755019,0.000000,2.658119,0.000000,4.689955
LINE713,0.000000,3.143321,0.000000,0.896641,0.000000,-0.646542
LINE714,0.000000,-0.981156,0.000000,3.671184,0.000000,1.572959
LINE715,0.000000,2.641778,0.000000,0.386320,0.000000,-1.570502
LINE716,0.000000,0.886779,0.000000,3.191598,0.000000,4.706261
LINE717,0.000000,-0.236025,0.000000,3.506485,0.000000,1.542264
LINE718,0.000000,2.754589,0.000000,2.695140,0.000000,4.686277
LINE719,0.000000,3.106315,0.000000,0.689620,0.000000,-0.774218
LINE720,0.000000,-1.111363,0.000000,4.251404,0.000000,1.572044
LINE721,0.000000,2.622588,0.000000,0.396429,0.000000,-1.570468
LINE722,0.000000,2.467962,0.000000,3.549497,0.000000,4.688971
LINE723,0.000000,-0.543779,0.000000,3.713416,0.000000,1.506334
LINE724,0.000000,0.003368,0.000000,3.181209,0.000000,1.585773
LINE725,0.000000,2.845064,0.000000,2.758280,0.000000,-1.535837
LINE726,0.000000,3.321996,0.000000,0.417204,0.000000,-0.862695
LINE727,0.000000,-1.190894,0.000000,-0.879790,0.000000,1.550380
LINE728,0.000000,2.624047,0.000000,0.387887,0.000000,-1.568538
LINE729,0.000000,2.387248,0.000000,-1.524599,0.000000,-1.515646
LINE730,0.000000,-0.513514,0.000000,3.703903,0.000000,1.505386
LINE731,0.000000,0.001297,0.000000,3.182460,0.000000,1.585965
LINE732,0.000000,2.921248,0.000000,2.939514,0.000000,-1.534686
LINE733,0.000000,3.144872,0.000000,0.944391,0.000000,-1.089668
LINE734,0.000000,-0.867294,0.000000,-0.540030,0.000000,1.593473
LINE735,0.000000,2.669336,0.000000,0.379223,0.000000,4.709965
LINE736,0.000000,2.599405,0.000000,3.094243,0.000000,-1.480800
LINE737,0.000000,-0.519779,0.000000,3.713733,0.000000,1.505071
LINE738,0.000000,-0.045545,0.000000,3.175244,0.000000,1.583600
LINE739,0.000000,2.990919,0.000000,2.936874,0.000000,-1.568289
LINE740,0.000000,3.149965,0.000000,1.927460,0.000000,-1.423625
LINE741,0.000000,-1.128845,0.000000,4.610442,0.000000,1.522532
LINE742,0.000000,2.677204,0.000000,0.395313,0.000000,-1.570345
LINE743,0.000000,2.075868,0.000000,3.878974,0.000000,-1.529737
LINE744,0.000000,-0.505283,0.000000,3.722746,0.000000,1.500625
LINE745,0.000000,4.635878,0.000000,2.992017,0.000000,1.484603
LINE746,0.000000,-0.105654,0.000000,3.172862,0.000000,1.564793
LINE747,0.000000,3.118876,0.000000,2.945026,0.000000,-1.562675
LINE748,0.000000,3.221185,0.000000,1.817449,0.000000,-0.798237
LINE749,0.000000,-0.962963,0.000000,3.002667,0.000000,-1.528214
LINE750,0.000000,2.682630,0.000000,0.477045,0.000000,4.712323
LINE751,0.000000,1.485809,0.000000,3.545918,0.000000,-0.914600
LINE752,0.000000,4.298173,0.000000,-1.439892,0.000000,1.513399
LINE753,0.000000,-0.185665,0.000000,3.437788,0.000000,1.479424
LINE754,0.000000,4.641458,0.000000,1.115771,0.000000,3.021708
LINE755,0.000000,-0.178195,0.000000,3.167579,0.000000,1.554497
LINE756,0.000000,3.057378,0.000000,3.014613,0.000000,-1.548718
LINE757,0.000000,3.037131,0.000000,1.448280,0.000000,-0.613941
LINE758,0.000000,-1.179023,0.000000,1.519562,0.000000,-1.523102
LINE759,0.000000,2.809615,0.000000,0.490824,0.000000,4.710692
LINE760,0.000000,1.483543,0.000000,2.603464,0.000000,-1.458354
LINE761,0.000000,4.319220,0.000000,-1.530213,0.000000,1.559446
LINE762,0.000000,-0.182010,0.000000,3.434700,0.000000,1.478764
LINE763,0.000000,3.121133,0.000000,2.914418,0.000000,1.602744
LINE764,0.000000,3.165900,0.000000,3.063542,0.000000,-1.525171
LINE765,0.000000,3.129561,0.000000,0.854222,0.000000,-0.868715
LINE766,0.000000,4.637495,0.000000,1.491525,0.000000,2.965306
LINE767,0.000000,2.852306,0.000000,0.519208,0.000000,-1.565957
LINE768,0.000000,-0.551190,0.000000,3.539757,0.000000,1.518987
LINE769,0.000000,4.141651,0.000000,-1.504609,0.000000,1.573446
LINE770,0.000000,2.590250,0.000000,4.652643,0.000000,3.025334
LINE771,0.000000,-0.279663,0.000000,3.420270,0.000000,1.509837
LINE772,0.000000,3.759142,0.000000,2.612982,0.000000,1.542244
LINE773,0.000000,3.062024,0.000000,3.063791,0.000000,-1.553228
LINE774,0.000000,3.042179,0.000000,1.144109,0.000000,-0.584200
LINE775,0.000000,1.493591,0.000000,4.636803,0.000000,1.597711
LINE776,0.000000,2.854754,0.000000,0.493651,0.000000,-1.561921
LINE777,0.000000,2.607462,0.000000,-0.083254,0.000000,-0.295266
LINE778,0.000000,4.117192,0.000000,-1.499672,0.000000,1.572908
LINE779,0.000000,2.992017,0.000000,2.992017,0.000000,-0.075346
LINE780,0.000000,-0.368018,0.000000,3.533008,0.000000,1.511641
LINE781,0.000000,3.269032,0.000000,2.618835,0.000000,1.550678
LINE782,0.000000,3.065465,0.000000,3.045702,0.000000,4.675682
LINE783,0.000000,3.727028,0.000000,1.452670,0.000000,0.447447
LINE784,0.000000,1.491951,0.000000,-1.475609,0.000000,3.122035
LINE785,0.000000,2.943720,0.000000,0.471144,0.000000,-1.561405
LINE786,0.000000,4.151440,0.000000,-1.508554,0.000000,1.573806
LINE787,0.000000,-0.289350,0.000000,3.638007,0.000000,1.511516
LINE788,0.000000,3.140370,0.000000,2.623287,0.000000,1.539139
LINE789,0.000000,2.997130,0.000000,3.011250,0.000000,3.381886
LINE790,0.000000,-1.306265,0.000000,2.544185,0.000000,0.696528
LINE791,0.000000,2.990705,0.000000,0.423496,0.000000,4.712322
LINE792,0.000000,-0.531457,0.000000,3.036753,0.000000,-1.390362
LINE793,0.000000,4.175462,0.000000,-1.536767,0.000000,1.588049
LINE794,0.000000,-0.181464,0.000000,3.597706,0.000000,1.492151
LINE795,0.000000,1.472471,0.000000,3.101040,0.000000,1.449366
LINE796,0.000000,2.902198,0.000000,3.042888,0.000000,1.701790
LINE797,0.000000,2.840382,0.000000,1.661323,0.000000,0.915223
LINE798,0.000000,3.086277,0.000000,0.461796,0.000000,4.707292
LINE799,0.000000,-0.609478,0.000000,3.347852,0.000000,1.370355
LINE800,0.000000,-0.730135,0.000000,-1.222167,0.000000,1.518056
LINE801,0.000000,3.363571,0.000000,3.207685,0.000000,1.700310
LINE802,0.000000,0.078683,0.000000,3.538974,0.000000,1.510398
LINE803,0.000000,2.581610,0.000000,2.581610,0.000000,-1.504705
LINE804,0.000000,3.206875,0.000000,3.018558,0.000000,1.621955
LINE805,0.000000,2.697130,0.000000,0.209802,0.000000,1.531091
LINE806,0.000000,3.102345,0.000000,0.429365,0.000000,4.701386
LINE807,0.000000,-0.305078,0.000000,3.514489,0.000000,-1.338238
LINE808,0.000000,-0.245338,0.000000,-0.827676,0.000000,1.553865
LINE809,0.000000,3.424908,0.000000,3.357094,0.000000,1.710912
LINE810,0.000000,4.302882,0.000000,3.792751,0.000000,2.522474
LINE811,0.000000,-0.100649,0.000000,2.843315,0.000000,1.557573
LINE812,0.000000,4.666074,0.000000,3.059277,0.000000,2.825803
LINE813,0.000000,3.248829,0.000000,2.861002,0.000000,1.665545
LINE814,0.000000,4.256026,0.000000,-0.011711,0.000000,-1.295165
LINE815,0.000000,2.910924,0.000000,0.346498,0.000000,4.711527
LINE816,0.000000,4.636668,0.000000,1.448019,0.000000,0.390714
LINE817,0.000000,-0.244898,0.000000,-1.001373,0.000000,1.539960
LINE818,0.000000,3.248717,0.000000,3.700014,0.000000,1.730729
LINE819,0.000000,0.664811,0.000000,-1.078802,0.000000,0.168551
LINE820,0.000000,4.635260,0.000000,1.495180,0.000000,-0.075346
LINE821,0.000000,3.572194,0.000000,2.842728,0.000000,1.676367
LINE822,0.000000,0.250443,0.000000,-0.588618,0.000000,3.641123
LINE823,0.000000,2.892544,0.000000,0.273965,0.000000,-1.537622
LINE824,0.000000,0.185131,0.000000,-0.603008,0.000000,1.544164
LINE825,0.000000,3.238809,0.000000,3.774522,0.000000,1.794006
LINE826,0.000000,-1.529766,0.000000,-1.529766,0.000000,4.549098
LINE827,0.000000,0.353239,0.000000,3.059154,0.000000,-1.439847
LINE828,0.000000,3.301146,0.000000,2.788785,0.000000,1.631035
LINE829,0.000000,0.294007,0.000000,-0.492211,0.000000,4.408306
LINE830,0.000000,3.247139,0.000000,0.187152,0.000000,-1.549455
LINE831,0.000000,1.602561,0.000000,-0.437318,0.000000,1.500267
LINE832,0.000000,3.355707,0.000000,3.750630,0.000000,1.829196
LINE833,0.000000,-0.900633,0.000000,3.424311,0.000000,4.603686
LINE834,0.000000,2.992017,0.000000,2.992017,0.000000,-0.075346
LINE835,0.000000,3.339845,0.000000,2.889121,0.000000,1.579328
LINE836,0.000000,3.308784,0.000000,0.705955,0.000000,-1.484911
LINE837,0.000000,2.604689,0.000000,-0.320818,0.000000,-1.390518
LINE838,0.000000,3.481920,0.000000,3.787927,0.000000,1.868274
LINE839,0.000000,0.223866,0.000000,3.498264,0.000000,1.799691
LINE840,0.000000,3.413082,0.000000,2.881981,0.000000,1.582247
LINE841,0.000000,3.087135,0.000000,1.470591,0.000000,1.416862
LINE842,0.000000,2.674785,0.000000,-0.117775,0.000000,-1.419142
LINE843,0.000000,2.325696,0.000000,-1.123242,0.000000,1.583072
LINE844,0.000000,3.784912,0.000000,3.300485,0.000000,2.556902
LINE845,0.000000,1.318326,0.000000,4.582474,0.000000,1.535259
LINE846,0.000000,3.344597,0.000000,2.935019,0.000000,1.580267
LINE847,0.000000,-0.556726,0.000000,3.325609,0.000000,1.567618
LINE848,0.000000,3.063599,0.000000,-0.075704,0.000000,-0.061739
LINE849,0.000000,2.610426,0.000000,-0.929689,0.000000,1.580996
LINE850,0.000000,3.935044,0.000000,3.393830,0.000000,3.102076
LINE851,0.000000,2.979423,0.000000,2.979423,0.000000,2.072358
LINE852,0.000000,3.428434,0.000000,2.862021,0.000000,1.586855
LINE853,0.000000,-0.860457,0.000000,3.852144,0.000000,1.595461
LINE854,0.000000,3.430398,0.000000,-0.205606,0.000000,-1.443821
LINE855,0.000000,2.091280,0.000000,-1.131216,0.000000,1.582869
LINE856,0.000000,3.926137,0.000000,3.361620,0.000000,3.285378
LINE857,0.000000,-0.867078,0.000000,1.126171,0.000000,-0.568542
LINE858,0.000000,3.779573,0.000000,3.068889,0.000000,1.563010
LINE859,0.000000,3.534307,0.000000,-0.083303,0.000000,1.515650
LINE860,0.000000,-0.149575,0.000000,-0.149575,0.000000,3.066247
LINE861,0.000000,3.491662,0.000000,-0.189856,0.000000,-1.436215
LINE862,0.000000,2.908925,0.000000,-0.963574,0.000000,1.587547
LINE863,0.000000,4.143127,0.000000,3.478497,0.000000,3.227471
LINE864,0.000000,2.597780,0.000000,1.852177,0.000000,3.761110
LINE865,0.000000,3.763532,0.000000,3.653922,0.000000,1.204497
LINE866,0.000000,3.510851,0.000000,-0.189364,0.000000,-1.440785
LINE867,0.000000,2.610426,0.000000,-0.389269,0.000000,1.590322
LINE868,0.000000,3.685867,0.000000,3.570704,0.000000,3.691799
LINE869,0.000000,-0.013100,0.000000,-0.444681,0.000000,-1.149362
LINE870,0.000000,3.288992,0.000000,3.850751,0.000000,4.707302
LINE871,0.000000,3.600711,0.000000,-0.195312,0.000000,-1.443678
LINE872,0.000000,2.610426,0.000000,-0.531166,0.000000,1.584809
LINE873,0.000000,0.000000,0.000000,3.074074,0.000000,1.456529
LINE874,0.000000,3.850784,0.000000,2.999324,0.000000,3.897331
LINE875,0.000000,-0.752375,0.000000,-0.752375,0.000000,4.411499
LINE876,0.000000,3.383685,0.000000,4.678825,0.000000,0.072921
LINE877,0.000000,3.594981,0.000000,-0.187503,0.000000,-1.439330
LINE878,0.000000,3.074074,0.000000,-0.711020,0.000000,-0.067519
LINE879,0.000000,1.503278,0.000000,3.537722,0.000000,1.579454
LINE880,0.000000,2.810974,0.000000,3.919234,0.000000,4.334076
LINE881,0.000000,3.727909,0.000000,-0.495450,0.000000,1.632527
LINE882,0.000000,-0.835802,0.000000,4.033849,0.000000,-1.551040
LINE883,0.000000,3.488567,0.000000,-0.162563,0.000000,-1.461442
LINE884,0.000000,1.503278,0.000000,-0.191874,0.000000,4.702841
LINE885,0.000000,0.000000,0.000000,0.000000,0.000000,3.074074
LINE886,0.000000,0.672068,0.000000,3.851119,0.000000,0.075963
LINE887,0.000000,3.487389,0.000000,-0.242393,0.000000,-1.464098
LINE888,0.000000,-0.586562,0.000000,4.343250,0.000000,1.687387
LINE889,0.000000,2.829095,0.000000,0.396129,0.000000,4.684481
LINE890,0.000000,-0.512877,0.000000,3.703599,0.000000,0.160380
LINE891,0.000000,3.567454,0.000000,-0.255628,0.000000,-1.460691
LINE892,0.000000,-0.345744,0.000000,-1.515426,0.000000,1.608928
LINE893,0.000000,0.000000,0.000000,0.396129,0.000000,4.697657
LINE894,0.000000,0.725985,0.000000,-0.538115,0.000000,4.708070
LINE895,0.000000,2.518121,0.000000,-0.538874,0.000000,2.860737
LINE896,0.000000,3.334968,0.000000,-0.171987,0.000000,-1.496488
LINE897,0.000000,2.915530,0.000000,2.915530,0.000000,3.030597
LINE898,0.000000,0.000000,0.000000,4.644870,0.000000,1.586829
LINE899,0.000000,1.413884,0.000000,4.637146,0.000000,1.917879
LINE900,0.000000,3.019650,0.000000,-0.417300,0.000000,-1.473637
LINE901,0.000000,2.078627,0.000000,-0.303170,0.000000,-1.479188
LINE902,0.000000,-0.073907,0.000000,-0.073907,0.000000,-0.068965
LINE903,0.000000,3.508101,0.000000,4.653069,0.000000,4.642917
LINE904,0.000000,2.276980,0.000000,4.662707,0.000000,4.099836
LINE905,0.000000,-0.543929,0.000000,-0.067164,0.000000,1.995964
